1MBO
  DSViewer          3D                             0

 44 49  0  0  0  0  0  0  0  0999 V2000
   17.1435   30.1460    2.3076 C   0  0  0  0  0  0  0  0  0  1
   12.5341   28.4772    1.8281 C   0  0  0  0  0  0  0  0  0  2
   13.6668   26.3637   -2.3928 C   0  0  0  0  0  0  0  0  0  3
   18.2023   28.1567   -1.8504 C   0  0  0  0  0  0  0  0  0  4
   15.0001   30.2856    3.6447 C   0  0  0  0  0  0  0  0  0  5
   13.7057   29.8310    3.4763 C   0  0  0  0  0  0  0  0  0  6
   13.6546   28.9945    2.2712 C   0  0  0  0  0  0  0  0  0  7
   12.5427   30.2238    4.3401 C   0  0  0  0  0  0  0  0  0  8
   15.5675   31.2528    4.6550 C   0  0  0  0  0  0  0  0  0  9
   15.1342   32.7304    4.4960 C   0  0  0  0  0  0  0  0  0 10
   15.5132   33.2922    3.1080 C   0  0  0  0  0  0  0  0  0 11
   16.5977   33.8406    2.8861 O   0  0  0  0  0  0  0  0  0 12
   14.5000   33.5563    2.4815 O   0  5  0  0  0  0  0  0  0 13
   12.4668   27.7933    0.6443 C   0  0  0  0  0  0  0  0  0 14
   11.2641   27.0801    0.2132 C   0  0  0  0  0  0  0  0  0 15
   11.6297   26.3835   -0.9548 C   0  0  0  0  0  0  0  0  0 16
   12.9983   26.7695   -1.2452 C   0  0  0  0  0  0  0  0  0 17
    9.9044   27.0471    0.9617 C   0  0  0  0  0  0  0  0  0 18
   10.8430   25.3932   -1.7802 C   0  0  0  0  0  0  0  0  0 19
    9.8386   24.5687   -1.1956 C   0  0  0  0  0  0  0  0  0 20
   15.0216   26.6480   -2.5855 C   0  0  0  0  0  0  0  0  0 21
   15.7683   26.0450   -3.6484 C   0  0  0  0  0  0  0  0  0 22
   17.1282   26.4429   -3.4706 C   0  0  0  0  0  0  0  0  0 23
   17.0827   27.4065   -2.3349 C   0  0  0  0  0  0  0  0  0 24
   15.1018   25.1477   -4.7063 C   0  0  0  0  0  0  0  0  0 25
   18.3832   26.0298   -4.2592 C   0  0  0  0  0  0  0  0  0 26
   18.3967   25.1538   -5.4207 C   0  0  0  0  0  0  0  0  0 27
   18.2562   28.8228   -0.6517 C   0  0  0  0  0  0  0  0  0 28
   19.4797   29.3632   -0.1494 C   0  0  0  0  0  0  0  0  0 29
   19.1941   29.8715    1.0276 C   0  0  0  0  0  0  0  0  0 30
   17.7764   29.6709    1.2079 C   0  0  0  0  0  0  0  0  0 31
   20.7625   29.2532   -0.8972 C   0  0  0  0  0  0  0  0  0 32
   20.1788   30.5040    2.0028 C   0  0  0  0  0  0  0  0  0 33
   20.7626   29.3972    2.8636 C   0  0  0  0  0  0  0  0  0 34
   21.8288   29.9295    3.8226 C   0  0  0  0  0  0  0  0  0 35
   22.8380   30.4866    3.3971 O   0  0  0  0  0  0  0  0  0 36
   21.4560   30.1143    4.9499 O   0  5  0  0  0  0  0  0  0 37
   14.9786   28.7736    1.7907 N   0  0  0  0  0  0  0  0  0 38
   13.5552   27.6815   -0.2748 N   0  0  0  0  0  0  0  0  0 39
   15.8026   27.4406   -1.7560 N   0  0  0  0  0  0  0  0  0 40
   17.2233   28.9100    0.1497 N   0  0  0  0  0  0  0  0  0 41
   15.3274   28.3430   -0.1347 Fe  0  2  0  0  0  0  0  0  0 42
   15.6937   26.8519    0.8549 O   0  0  0  0  0  0  0  0  0 43
   16.4160   26.0323    0.3197 O   0  0  0  0  0  0  0  0  0 44
  1 31  2  0  0  0
  2  7  2  0  0  0
  2 14  1  0  0  0
  3 17  1  0  0  0
  3 21  2  0  0  0
  4 24  1  0  0  0
  4 28  2  0  0  0
  5  6  2  0  0  0
  5  9  1  0  0  0
  6  7  1  0  0  0
  6  8  1  0  0  0
  7 38  1  0  0  0
  9 10  1  0  0  0
 10 11  1  0  0  0
 11 12  2  0  0  0
 11 13  1  0  0  0
 14 15  2  0  0  0
 14 39  1  0  0  0
 15 16  1  0  0  0
 15 18  1  0  0  0
 16 17  2  0  0  0
 16 19  1  0  0  0
 17 39  1  0  0  0
 19 20  2  0  0  0
 21 22  1  0  0  0
 21 40  1  0  0  0
 22 23  2  0  0  0
 22 25  1  0  0  0
 23 24  1  0  0  0
 23 26  1  0  0  0
 24 40  2  0  0  0
 26 27  2  0  0  0
 28 29  1  0  0  0
 28 41  1  0  0  0
 29 30  2  0  0  0
 29 32  1  0  0  0
 30 31  1  0  0  0
 30 33  1  0  0  0
 31 41  1  0  0  0
 33 34  1  0  0  0
 34 35  1  0  0  0
 35 36  2  0  0  0
 35 37  1  0  0  0
 38 42  1  0  0  0
 39 42  1  0  0  0
 40 42  1  0  0  0
 41 42  1  0  0  0
 43 44  1  0  0  0
 43 42  1  0  0  0
M  CHG  3  13  -1  37  -1  42   2
M  END
$$$$
